packages/py-dss-toolkit/py_dss_toolkit-0.4.0.tar.gz/py_dss_toolkit-0.4.0/tests/py_dss_toolkit/cases/13bus/IEEE13Nodeckt_VLN_Node.Txt

LINE-GROUND and LINE-LINE VOLTAGES BY BUS & NODE

Bus       Node    VLN (kV)   Angle      pu     Base kV    Node-Node   VLL (kV)  Angle      pu

SOURCEBUS 1       66.401 /_   30.0    1.0001   115.000        1-2     115.01 /_   60.0    1.0001
   -      2       66.399 /_  -90.0    1.0001   115.000        2-3     115.01 /_  -60.0    1.0001
   -      3         66.4 /_  150.0    1.0001   115.000        3-1     115.01 /_  180.0    1.0001
650 ..... 1        2.402 /_    0.0    1.0001     4.160        1-2     4.1603 /_   30.0    1.0001
   -      2       2.4019 /_ -120.0    1.0001     4.160        2-3     4.1602 /_  -90.0    1.0001
   -      3       2.4019 /_  120.0         1     4.160        3-1     4.1602 /_  150.0    1.0001
RG60 .... 1       2.4469 /_    0.0    1.0188     4.160        1-2     4.2382 /_   30.0    1.0188
   -      2       2.4469 /_ -120.0    1.0188     4.160        2-3     4.2511 /_  -89.9    1.0219
   -      3       2.4619 /_  120.0     1.025     4.160        3-1     4.2512 /_  149.9    1.0219
633 ..... 1       2.4192 /_   -0.3    1.0072     4.160        1-2     4.2076 /_   29.6    1.0114
   -      2       2.4293 /_ -120.7    1.0114     4.160        2-3     4.1948 /_  -90.5    1.0084
   -      3       2.4264 /_  119.8    1.0103     4.160        3-1      4.198 /_  149.7    1.0091
634 ..... 1      0.27242 /_   -1.0     0.983     0.480        1-2    0.47462 /_   29.1   0.98879
   -      2      0.27506 /_ -121.2   0.99255     0.480        2-3    0.47497 /_  -91.0   0.98952
   -      3      0.27473 /_  119.3   0.99134     0.480        3-1    0.47451 /_  149.0   0.98856
671 ..... 1            0 /_    0.0         0   115.000        1-2          0 /_    0.0         0
   -      2            0 /_    0.0         0   115.000        2-3          0 /_    0.0         0
   -      3            0 /_    0.0         0   115.000        3-1          0 /_    0.0         0
645 ..... 2       2.4263 /_ -120.8    1.0102     4.160        2-3     4.1875 /_  -90.5    1.0066
   -      3       2.4248 /_  119.8    1.0096     4.160
646 ..... 2       2.4223 /_ -120.9    1.0085     4.160        2-3     4.1772 /_  -90.5    1.0041
   -      3         2.42 /_  119.9    1.0076     4.160
692 ..... 1            0 /_    0.0         0   115.000        1-2          0 /_    0.0         0
   -      2            0 /_    0.0         0   115.000        2-3          0 /_    0.0         0
   -      3            0 /_    0.0         0   115.000        3-1          0 /_    0.0         0
675 ..... 1            0 /_    0.0         0   115.000        1-2          0 /_    0.0         0
   -      2            0 /_    0.0         0   115.000        2-3          0 /_    0.0         0
   -      3            0 /_    0.0         0   115.000        3-1          0 /_    0.0         0
611 ..... 3            0 /_    0.0         0   115.000
652 ..... 1            0 /_    0.0         0   115.000
670 ..... 1            0 /_    0.0         0   115.000        1-2          0 /_    0.0         0
   -      2            0 /_    0.0         0   115.000        2-3          0 /_    0.0         0
   -      3            0 /_    0.0         0   115.000        3-1          0 /_    0.0         0
632 ..... 1       2.4265 /_   -0.2    1.0103     4.160        1-2     4.2184 /_   29.6     1.014
   -      2        2.434 /_ -120.7    1.0134     4.160        2-3     4.2053 /_  -90.5    1.0109
   -      3       2.4327 /_  119.8    1.0129     4.160        3-1     4.2085 /_  149.7    1.0117
680 ..... 1            0 /_    0.0         0   115.000        1-2          0 /_    0.0         0
   -      2            0 /_    0.0         0   115.000        2-3          0 /_    0.0         0
   -      3            0 /_    0.0         0   115.000        3-1          0 /_    0.0         0
684 ..... 1            0 /_    0.0         0   115.000
   -      3            0 /_    0.0         0   115.000        3-1          0 /_    0.0         0
